大三上-2024-2025学年-秋/大数据技术与应用/作业/第2次作业_回归/hw2_3gpf.csv
1PV_P_Bus1,2PV_P_Bus2,3PV_P_Bus3,1PV_Q_Bus1,2PV_Q_Bus2,3PV_Q_Bus3,1Line_Ps_FB1_TB2,2Line_Ps_FB1_TB3,3Line_Ps_FB2_TB4,4Line_Ps_FB3_TB4,1Line_Qs_FB1_TB2,2Line_Qs_FB1_TB3,3Line_Qs_FB2_TB4,4Line_Qs_FB3_TB4,Vm_Bus1,Vm_Bus2,Vm_Bus3,Vm_Bus4,Va_Bus1,Va_Bus2,Va_Bus3,Va_Bus4,1PV_Pmax_Bus1,2PV_Pmax_Bus2,3PV_Pmax_Bus3,Margin
249.47,146.5,73.377,-128.84,218.74,176.23,72.55,128.88,59.767,15.007,-85.715,-70.111,39.96,-3.196,0.98989,1.0256,1.0064,1.0066,0,-0.04456,-0.053389,-0.063213,454.9,288.72,187.18,0.97866
146.05,103.88,80.974,155.11,71.823,-51.873,44.882,67.49,36.624,16.176,29.95,110.02,40.209,-16.761,1.0205,1.0011,0.97442,0.98324,0,-0.019177,-0.017003,-0.029974,367.42,249.29,315.09,1.8142
41.379,151.88,160.95,6.275,80.385,93.395,3.4888,2.485,34.95,21.783,-0.81407,-5.4221,14.123,10.741,1.0238,1.0239,1.0256,1.0162,0,-0.0017557,-0.0012651,-0.01324,491.44,360.39,261.99,2.123
180.05,163.66,199.2,-81.945,192.89,192.62,65.265,60.074,44.437,42.396,-52.608,-56.48,33.343,10.797,1.0094,1.029,1.0257,1.0136,0,-0.036791,-0.025651,-0.050257,464.92,377.78,380.5,1.2447
235.49,114.8,164.69,-134.25,238.89,190.08,96.39,86.561,36.195,45.938,-90.63,-73.211,44.51,-2.8479,0.98329,1.0193,1.0042,1.0002,0,-0.057637,-0.038141,-0.06759,459.81,391.43,350.39,1.3305
73.991,234.52,227.35,128.39,180.32,-7.4719,5.3257,14.803,57.922,27.948,-5.1022,107.28,70.295,-25.329,1.0151,1.0171,0.97376,0.98662,0,-0.0030991,0.0025159,-0.019352,454.19,348.93,355.2,1.1534
44.779,128.97,60.764,115.73,95.152,-97.497,-9.6422,30.615,39.943,-2.415,-3.1011,111.01,51.401,-37.183,1.0166,1.0191,0.97268,0.99711,0,0.0043881,-0.0031525,-0.0064656,475.24,246.51,223.63,3.0206
245.85,11.054,256.85,-6.1001,150.33,153.1,153.61,39.947,-9.9829,92.179,-16.513,-18.796,28.843,14.773,0.99508,0.98784,0.99912,0.97766,0,-0.080535,-0.016355,-0.074465,464.17,165.96,381.41,0.96567
230.21,49.66,109.75,-37.741,165.67,84.024,103.46,87.078,20.695,41.476,-49.637,-7.5373,40.091,-11.158,1.008,1.0224,1.0044,1.0062,0,-0.055488,-0.032555,-0.060068,409.77,288.68,313.78,1.5972
121.43,183.5,18.479,-93.293,74.237,188.35,-4.591,93.236,69.341,-17.62,-21.189,-86.122,-6.7549,29.544,0.99205,1.0032,1.0171,1.0006,0,0.00017306,-0.040744,-0.026026,564.02,368.47,268.06,2.6943
59.246,139.96,114.04,3.374,60.926,94.037,4.4628,23.453,37.934,12.232,4.1281,-11.671,7.3734,14.326,0.97921,0.97661,0.98186,0.97089,0,-0.0019155,-0.0099784,-0.016218,295.9,300,240.94,1.6627
265.01,42.454,38.574,-33.644,-3.0973,228.73,102.14,127.16,27.498,27.631,35.865,-89.086,-34.019,59.514,1.0039,0.97519,1.0273,0.98602,0,-0.048891,-0.052323,-0.062165,544.89,171.43,312.48,1.9696
73.275,135.67,28.515,106.72,-1.0658,6.3157,-7.2514,56.537,47.775,-9.8198,47.264,52.385,4.4784,9.2459,1.0244,1.0016,1.001,0.99636,0,0.0082168,-0.016703,-0.0092576,322.69,384.83,320.57,3.328
81.088,187.5,59.744,109.32,-9.3661,71.876,-14.092,62.062,61.816,-9.2668,65.377,30.445,-6.1821,29.959,1.0034,0.97134,0.98732,0.96897,0,0.014067,-0.021016,-0.010856,542.8,329.87,366.82,2.7575
27.984,105.37,167.34,-113.1,140.74,123.22,13.946,-16.3,17.144,30.912,-63.7,-60.662,21.897,-2.3156,0.99235,1.0229,1.0161,1.0136,0,-0.013266,0.001531,-0.017843,534.33,254.82,326.57,2.6825
70.495,29.303,73.245,-109.03,187.2,-1.1794,35.926,16.817,6.2855,21.381,-103.65,-10.325,52.986,-44.904,0.97417,1.023,0.97683,1.003,0,-0.028682,-0.0073823,-0.027113,536.46,239.67,281.18,5.0996
138.54,0.38229,74.948,43.112,-19.803,76.218,73.002,43.831,0.67791,33.491,42.164,-5.4581,-15.567,27.286,1.0063,0.97743,1.0051,0.98329,0,-0.033075,-0.016522,-0.034545,498.04,140.57,320.86,3.464
82.567,118.15,100.5,-71.666,115.09,107.62,18.244,34.044,34.012,14.162,-41.58,-40.921,18.283,1.6883,0.98424,1.0035,0.99707,0.99417,0,-0.013563,-0.016012,-0.024879,382.93,398.27,365.28,2.7932
13.465,66.207,73.556,81.829,-15.996,-6.41,0.31122,-2.2822,14.444,10.038,39.131,41.229,-0.88512,6.3884,0.99419,0.97406,0.97879,0.9733,0,0.0039217,0.0040292,-0.001815,398.05,258.22,239.48,4.8218
278.07,154.34,115.14,-3.9305,267.3,54.399,92.228,130.06,60.624,26.875,-75.567,39.922,81.012,-34.706,0.99868,1.0272,0.97377,0.99282,0,-0.052777,-0.046708,-0.068972,554.81,339.29,310.4,1.1933
143.88,84.5,245.91,233.34,35.509,1.9392,86.458,9.0209,10.033,65.664,85.123,121.58,26.28,12.428,1.0262,0.97444,0.98035,0.96356,0,-0.034977,0.0056691,-0.036866,558.11,325.29,392.28,1.6831
150.19,46.636,20.32,-67.541,21.23,148.62,50.902,77.149,23.984,10.649,-1.9465,-72.892,-18.281,30.041,0.98838,0.98417,1.0098,0.98926,0,-0.026576,-0.034201,-0.037139,585.12,311.13,337.52,4.6563
38.862,118.41,114.49,-7.8923,35.552,102.42,2.9687,8.7074,29.012,14.507,9.4438,-25.137,-3.2969,20.151,1.0097,1.0046,1.0183,1.0037,0,-0.00053402,-0.0049722,-0.01148,337.9,356.56,371.07,2.9079
197.11,203.58,30.802,-142.39,114.45,271.06,22.424,130.54,80.102,-11.253,-38.303,-128.24,-6.7497,40.483,0.98845,1.0056,1.0262,1.0022,0,-0.015264,-0.05732,-0.045335,389.7,383.09,138.9,1.1103
123.95,63.846,180.14,228.36,22.429,-47.715,70.357,15.871,9.4839,49.132,76.291,132.38,27.687,-0.14332,1.023,0.9774,0.97243,0.96605,0,-0.027752,0.00398,-0.029303,418.09,381.36,344.67,2.1132
205.31,164.53,21.289,-124.94,151.52,187.45,36.92,128.43,68.925,-6.5702,-60.121,-85.225,16.714,12.111,1.0003,1.0266,1.0222,1.0155,0,-0.024037,-0.052953,-0.047439,369.33,358.33,334.07,1.7178
157.92,71.13,166.35,137.16,106.52,-28.435,79.356,38.469,16.324,46.873,16.866,101.37,47.61,-17.415,1.0258,1.0096,0.98543,0.99063,0,-0.036977,-0.0066841,-0.039501,362.81,289.75,342.21,1.5153
160.02,126.67,195.55,202.84,130.53,-59.284,68.918,42.032,32.198,44.847,28.43,148.12,64.806,-25.316,1.0287,1.0077,0.97035,0.98105,0,-0.030737,-0.0046074,-0.037967,459.16,372.07,358.65,1.4652
58.432,73.126,43.523,-66.224,118.49,19.976,10.493,30.274,24.066,3.9379,-59.252,-9.8191,30.526,-23.2,0.99467,1.0233,0.99608,1.0103,0,-0.011078,-0.012105,-0.017537,228.55,340.24,186.35,3.3116
143.31,28.999,174.08,-142.27,190.57,137.49,87.261,20.686,-1.4988,56.779,-89.021,-70.272,34.292,-9.5753,0.99193,1.0277,1.0165,1.0153,0,-0.051984,-0.012825,-0.049001,469.31,360.42,313.63,2.2973
42.185,99.036,116.2,-56.514,163,17.717,11.234,5.0467,22.695,18.534,-69.775,5.2108,46.747,-30.85,0.99602,1.0297,0.99369,1.011,0,-0.012395,-0.0015045,-0.017159,200.35,361.52,274.5,2.2498
65.767,17.723,66.784,17.999,9.4923,29.465,35.965,14.713,2.5991,21.44,12.511,4.5021,-1.3168,6.4957,0.98878,0.97866,0.98597,0.97896,0,-0.017424,-0.0052698,-0.018536,302.07,345.59,221.25,4.7667
65.691,88.321,51.608,-189.83,67.379,220.44,9.5787,34.789,28.53,4.1274,-53.066,-145.34,-20.586,30.748,0.97713,1.0032,1.0285,1.0087,0,-0.010395,-0.023653,-0.022398,599.5,243.63,337.18,4.7216
205.23,110.62,11.191,107.05,30.573,34.803,51.361,120.52,51.11,1.0244,42.173,49.712,11.683,11.011,1.0235,0.99729,0.99629,0.98908,0,-0.021183,-0.040342,-0.039576,475.86,213.95,331.18,2.1148
86.772,29.149,88.893,-87.751,138.67,42.765,45.924,20.074,5.389,27.337,-69.825,-23.77,32.834,-22.143,0.97654,1.0074,0.98404,0.99481,0,-0.030703,-0.0096135,-0.030262,357.25,226.78,330.4,3.4579
30.658,123.18,93.879,-41.783,16.763,142.66,-6.4923,12.29,32.585,7.087,9.7814,-58.69,-17.033,31.965,0.99108,0.98674,1.012,0.9907,0,0.0043564,-0.0089181,-0.0093412,362.73,360.18,343.37,3.2916
53.268,106.27,54.212,165.55,84.478,-146.26,-0.45041,31.714,33.764,0.36248,9.2288,148.18,57.689,-45.39,1.0283,1.0238,0.9707,1.0001,0,0.0011015,-0.00075823,-0.0069674,207.13,278.6,307.76,2.735
20.52,34.147,147.6,-114.7,33.705,173.94,28.803,-28.858,-5.4644,37.789,-19.989,-100.76,-20.312,30.845,0.97762,0.98495,1.0174,0.99301,0,-0.017173,0.0032446,-0.016642,448.03,267.61,305.55,4.0365
67.212,55.248,90.274,3.683,-7.3037,99.148,29.449,16.411,12.418,21.646,27.072,-28.189,-16.636,28.026,1.0008,0.98402,1.01,0.98937,0,-0.012292,-0.008117,-0.01831,539.38,240.27,361.68,4.3246
96.098,101.71,91.414,-190.69,172.51,167.44,26.892,39.496,30.427,15.572,-97.593,-106.87,20.81,-2.654,0.97982,1.0263,1.0168,1.0165,0,-0.023287,-0.022742,-0.032651,436.55,370.19,383.93,3.1147
115.74,166.25,8.0304,-6.5151,112.61,39.594,-3.2398,89.745,64.559,-18.119,-28.889,11.877,30.944,-11.563,1.006,1.0207,0.99485,1.0045,0,-0.0012533,-0.032479,-0.022428,451.73,316.26,307.24,2.6963
99.078,16.181,165.62,-145.82,144.11,145.27,70.906,-0.51216,-8.2878,53.103,-74.059,-83.985,17.675,0.3983,0.98577,1.016,1.017,1.0101,0,-0.043165,-0.0060515,-0.038877,319.72,275.16,275.49,2.1025
110.15,119.7,69.683,-25.53,-11.03,189.96,21.619,58.309,39.754,8.2273,35.203,-72.301,-30.859,51.643,0.99732,0.97709,1.0197,0.98579,0,-0.0075297,-0.026627,-0.02527,368.11,355.71,335.26,2.5322
130.15,132.3,81.012,91.3,41.289,47.022,28.863,66.682,44.498,10.415,36.01,41.16,12.851,11.876,1.0003,0.97899,0.97982,0.97068,0,-0.011137,-0.02218,-0.027549,335.17,299.28,191.07,1.3975
46.448,164.06,213.41,138.71,44.264,46.976,13.082,-9.2567,33.116,34.711,54.714,64.964,17.414,15.626,1.0033,0.97395,0.97954,0.96471,0,-0.0010881,0.0084293,-0.012818,537.06,386.73,341.61,1.9676
17.358,103.94,113.18,-167.6,105.1,175.09,-1.8531,-4.773,22.627,14.702,-64.679,-111.79,-0.78079,13.546,0.97988,1.0129,1.0218,1.0115,0,-0.005645,-0.0065456,-0.013917,196.27,293.83,394.16,2.7787
158.23,5.462,94.563,-173.75,224.1,85.309,84.19,47.16,1.7301,39.321,-124.42,-63.121,48.998,-32.884,0.97423,1.0285,0.99455,1.0105,0,-0.054918,-0.022961,-0.052025,547.78,106.26,268.42,2.5594
25.082,226.02,228.88,-85.338,72.514,280.08,-12.766,-10.461,50.51,26.381,2.7428,-111.39,-17.545,56.734,0.97572,0.97562,1.0181,0.97846,0,0.0070494,-0.0044373,-0.014004,392.98,383.5,337.82,1.3137
114.47,15.381,172.55,125.31,15.722,15.809,80.143,3.6456,-7.2016,55.541,51.264,61.386,10.086,10.947,1.0139,0.97976,0.99079,0.97647,0,-0.03545,0.0032031,-0.031865,473.55,273.09,365.6,2.6705
71.007,63.15,33.976,-79.542,50.738,95.48,16.468,37.563,22.544,4.3071,-27.047,-54.745,-2.7632,8.9158,1.0035,1.0154,1.0209,1.0147,0,-0.010828,-0.017622,-0.019167,276.77,188.55,240.04,3.1881
97.57,219.39,149.64,59.794,143.16,52.148,2.9229,47.895,63.718,11.047,-7.9486,46.922,44.856,-7.3955,0.99923,1.003,0.97794,0.98132,0,-0.0022713,-0.014655,-0.022959,474.69,330.31,397.2,1.5628
31.857,56.419,85.89,-40.534,107.01,6.0331,13.862,0.49291,11.048,16.84,-47.91,4.67,30.498,-22.786,0.97747,1.0005,0.97565,0.98828,0,-0.012094,0.00017259,-0.013952,412.47,388.32,296.29,5.2758
165.77,53.458,183.2,-144.26,160.25,205.47,90.215,34.524,7.0663,57.143,-66.026,-99.192,15.81,14.489,0.98727,1.0115,1.0215,1.0052,0,-0.05223,-0.020063,-0.053657,362.92,382.85,312.07,1.6296
209.27,112.18,90.97,-86.34,123.71,189.53,69.827,97.522,42.092,23.707,-34.112,-73.3,9.9381,21.409,0.97953,0.98987,0.99978,0.98293,0,-0.039859,-0.042632,-0.055191,361.39,289.43,296.24,1.2947
38.959,51.191,74.153,-103.21,16.54,154.28,15.4,6.8712,10.981,15.262,-13.708,-92.548,-23.085,29.54,0.98044,0.98591,1.0145,0.99377,0,-0.0094621,-0.0095024,-0.015387,254.75,325.33,230.56,3.9372
232.75,259.12,44.516,-64.584,113.69,262.1,21.995,156.22,99.551,-13.765,-7.4353,-87.82,0.45749,45.238,0.9752,0.97677,0.99658,0.96897,0,-0.012426,-0.066573,-0.051525,429.74,389.65,355.16,1.1903
86.53,166.58,54.088,1.4724,78.284,75.398,-5.678,61.398,56.513,-7.3159,-6.4301,-2.9893,15.431,5.6524,0.99128,0.99513,0.98778,0.98507,0,0.002242,-0.023554,-0.018031,425.18,369.35,333.02,2.6558
106.32,172.61,130.98,132.94,97.774,-10.421,17.277,47.746,50.731,14.841,22.458,92.317,42.423,-11.222,1.0296,1.0168,0.99208,0.99738,0,-0.0061484,-0.010654,-0.02164,295.37,376.59,367.06,1.5329
126.78,33.798,48.493,192.34,-33.208,-57.793,51.917,53.181,14.861,18.301,77.595,105.93,7.1828,3.8783,1.0162,0.97151,0.97257,0.96761,0,-0.018559,-0.01203,-0.02387,528.22,149.25,255.99,3.4561
13.146,247.29,73.354,161.23,69.014,-52.246,-58.518,37.749,75.513,-22.128,34.141,111.91,39.911,-15.415,1.0193,1.0081,0.97467,0.98759,0,0.032061,-0.0057413,0.0068321,277.02,356.82,267.77,1.7071
80.655,143.42,96.368,19.884,66.987,75.961,8.4007,40.174,42.892,8.4173,5.0535,3.3843,12.866,9.4935,0.98694,0.98349,0.98262,0.97533,0,-0.0038354,-0.01515,-0.01947,451.85,337.96,364.3,2.5818
230.68,12.342,208.87,-33.288,114.76,175.6,135.92,48.732,-5.2814,77.517,-11.656,-46.536,12.171,24.73,0.98163,0.9736,0.99549,0.96934,0,-0.072969,-0.0221,-0.069927,510.11,120.16,319.47,1.0919
106.71,180.81,32.971,-11.246,143.23,32.531,-6.0573,80.498,65.884,-14.541,-41.962,18.441,41.818,-19.322,1.0086,1.03,0.99574,1.0099,0,-0.0011438,-0.028452,-0.021711,555.25,337.19,363.22,2.8971
56.936,156.36,176.13,-97.449,142.75,159.33,11.666,6.1261,35.696,26.597,-49.901,-63.722,19.373,8.9662,1.0047,1.0284,1.0276,1.0187,0,-0.010571,-0.0068054,-0.021868,506.84,301.35,389.65,2.0556
43.412,56.137,59.008,16.522,52.419,-8.8416,12.893,14.634,15.142,10.237,-10.068,25.667,17.973,-12.403,1.008,1.0117,0.99735,1.004,0,-0.007369,-0.0035127,-0.011596,559.12,187.46,254.82,5.252
285.86,89.759,133.66,-51.1,227.01,117.1,119.17,114.65,35.866,45.362,-68.404,-12.397,55.506,-13.92,0.99042,1.0129,0.98645,0.98958,0,-0.066805,-0.044613,-0.075989,488.22,213.59,248.41,0.86077
59.236,235.2,78.863,86.259,10.987,102,-34.131,55.821,74.152,-14.33,56.19,14.236,-4.6094,33.071,1.0062,0.98105,0.99671,0.97717,0,0.02318,-0.019649,-0.0059553,591.85,370.65,366.21,2.5389
94.43,78.276,224.64,21.496,133.68,59.072,63.064,-8.5146,6.3226,57.364,-19.475,23.786,37.929,-6.9212,0.98058,0.98411,0.97216,0.96916,0,-0.03498,0.0051816,-0.034483,493.81,253.82,332.03,1.7012
85.521,201.27,137.31,27.768,158.15,40.828,1.1864,41.845,58.278,9.6849,-28.3,38.341,48.806,-16.12,1.016,1.0299,0.99878,1.0078,0,-0.0033044,-0.012524,-0.020687,328.44,372.47,293.58,1.3392
224.68,181.74,68.862,18.423,157.19,88.045,50.027,126.58,70.453,5.5219,-23.108,17.819,41.773,-4.0469,1.0196,1.0261,1.0037,1.0056,0,-0.026334,-0.044729,-0.04872,451.28,382.78,225.85,1.224
24.531,136.6,264.28,-18.849,142,106.67,23.75,-41.828,15.845,52.332,-28.496,-8.7066,32.115,1.2873,0.97717,0.98937,0.98366,0.976,0,-0.01536,0.015513,-0.018985,428.93,262.37,368.1,1.477
51.362,33.685,76.39,-67.549,104.52,25.7,27.075,8.0054,5.8465,19.971,-54.008,-15.246,24.95,-19.248,1.004,1.0281,1.009,1.0186,0,-0.018508,-0.004061,-0.018809,413.68,295,389.63,5.7819
130.56,21.513,136.71,-91.756,181.23,60.299,76.901,24.279,0.14882,46.008,-81.431,-22.857,44.61,-24.924,0.97234,1.0061,0.97922,0.98942,0,-0.048046,-0.011274,-0.044763,294.43,242.39,346.48,2.0627
134.28,31.801,111.71,-192.85,170.41,166.92,68.86,36.69,6.3723,37.755,-98.053,-108.92,19.848,-2.6578,0.98028,1.0228,1.0181,1.0151,0,-0.044509,-0.021807,-0.045368,363.13,173.18,325.88,2.1056
147.83,179.14,25.841,158.42,23.174,8.8032,8.6118,103.3,68.129,-11.807,60.286,81.16,16.477,9.5891,1.0143,0.98295,0.97621,0.97147,0,0.0017579,-0.032706,-0.023498,593.73,347.19,360.88,2.6761
85.645,51.082,71.633,-15.269,61.089,45.348,34.652,30.081,14.903,18.425,-14.268,-5.2478,11.742,-1.3508,1.0083,1.012,1.008,1.0066,0,-0.018528,-0.011394,-0.023111,501.57,337.87,344.91,4.6495
132.5,179.02,130.66,-26.628,184.76,81.944,26.464,61.618,55.141,15.663,-50.649,4.2008,48.53,-13.917,0.99754,1.0203,0.99135,0.99827,0,-0.018135,-0.022863,-0.034724,492.28,315.08,332.3,1.5629
151.18,30.79,298.88,-100.41,271.15,107.38,117.5,-15.269,-15.229,92.291,-103.69,-23.838,68.868,-27.822,0.97667,1.0173,0.98687,0.99291,0,-0.0702,0.0040501,-0.059512,449.28,177.81,399.88,1.1319
140.5,145.37,72.569,101,60.669,28.536,27.191,77.139,50.87,6.427,29.527,55.924,22.558,3.8519,0.99726,0.97938,0.97024,0.96685,0,-0.010975,-0.025352,-0.029184,417.42,369.44,394.31,2.2871
91.13,148.91,153.38,106.44,118.69,-15.186,23.662,27.901,39,23.98,3.9352,85.689,48.274,-18.469,1.0173,1.013,0.98333,0.99217,0,-0.011185,-0.0039927,-0.022041,552.65,258.22,274.09,1.7379
152.53,289.48,106.81,146.88,184.17,-16.252,-6.2705,103.3,97.102,-9.178,-1.5004,119.17,74.276,-27.256,1.0253,1.0267,0.97317,0.99208,0,0.0028579,-0.029615,-0.027176,561,397.47,233.03,1.1614
223.15,63.377,113.85,-43.671,64.403,198.8,95.517,86.906,23.052,40.867,4.8195,-68.701,-8.2314,38.583,1.0011,0.98893,1.02,0.99029,0,-0.048149,-0.03668,-0.057531,483.15,232.11,307.83,1.5476
51.564,130.58,103.07,10.227,-10.228,141.14,1.6358,21.321,35.32,10.387,39.842,-38.969,-22.215,41.115,1.0056,0.98521,1.0184,0.99092,0,0.0032321,-0.01058,-0.011922,242.44,272.48,310.78,1.8924
151.19,71.579,232.79,-99.817,122.36,232.54,88.935,16.124,5.9538,66.923,-29.468,-93.76,3.6932,33.037,0.97475,0.98079,1.0088,0.97893,0,-0.050016,-0.013205,-0.052036,306.88,243.52,385.45,1.0535
78.586,79.095,37.444,13.294,25.802,42.872,15.294,43.719,28.082,3.1335,8.308,1.8733,2.1701,6.7163,1.0234,1.0178,1.0195,1.0149,0,-0.0065937,-0.015453,-0.01655,543.13,291.21,331.34,4.9303
87.788,226.58,205.72,12.04,109.47,164.98,8.3793,27.406,58.171,25.182,7.7916,-19.199,15.971,26.561,1,0.99521,1.0051,0.98482,0,-0.0034518,-0.011566,-0.024317,530.07,375.09,323.66,1.346
29.959,53.536,78.553,41.68,-39.331,62.315,12.204,1.4747,10.644,15.304,45.106,-5.1973,-20.301,26.821,0.9967,0.97229,0.99853,0.97923,0,-0.0016424,-0.00094027,-0.0073895,528.4,176.95,297.48,5.1385
11.53,64.618,142.23,-135.76,114.64,122.56,14.49,-25.169,4.9921,29.837,-65.281,-77.443,11.415,0.026556,0.97875,1.0104,1.0097,1.0059,0,-0.014055,0.0036351,-0.015045,420.67,219.65,320.78,3.3846
97.022,138.51,16.34,94.372,20.944,6.4671,-0.93924,72.516,52.084,-11.818,34.948,51.22,11.219,4.1496,1.0162,0.99877,0.99182,0.99067,0,0.0039462,-0.022979,-0.014791,450.69,251.18,283.23,2.8979
217.51,63.307,168.88,-42.974,143.93,149.84,106.05,65.863,16.537,55.308,-30.451,-35.716,24.596,11.056,0.98397,0.98871,0.99247,0.97814,0,-0.058132,-0.027816,-0.062598,544.56,370.56,377.23,1.8632
346.48,36.493,82.736,-48.655,149.72,170.62,148.72,149.52,27.217,46.752,-32.602,-46.513,22.461,14.357,0.98622,0.98769,0.99248,0.9771,0,-0.080412,-0.060399,-0.089168,597.84,184.97,367.72,1.4645
22.31,122.83,264.03,3.8097,99.893,116.23,27.141,-45.801,11.04,54.543,-3.7137,-9.7952,18.384,13.519,0.97738,0.97649,0.98458,0.96861,0,-0.014725,0.016947,-0.017618,430.19,369.91,373.32,1.8554
141.62,189.91,42.583,-122.99,100.74,226.14,6.7926,96.785,70.014,-10.251,-34.421,-107.15,-4.557,32.614,0.97392,0.99093,1.0069,0.98737,0,-0.0071515,-0.044866,-0.03412,338.79,392.53,236.15,1.5853
26.028,122.88,33.661,41.415,14.746,20.598,-21.273,28.988,39.539,-10.309,18.675,19.888,3.3606,5.0613,0.99759,0.99026,0.98795,0.98601,0,0.012763,-0.0094373,-0.0020442,349.86,255.15,197.5,3.3799
99.15,78.797,42.063,28.311,-19.207,92.054,24.539,52.453,28.601,6.6017,39.378,-16.814,-18.024,30.233,1.0037,0.98112,1.006,0.98578,0,-0.0085169,-0.020566,-0.020906,354.22,391.37,197.99,3.2764
83.75,157.51,54.466,-122.8,65.667,208.03,-4.1271,57.87,53.213,-5.96,-26.399,-108.52,-14.422,34.002,0.99158,1.0054,1.0274,1.0068,0,-0.00058987,-0.029072,-0.021209,365.09,319.18,357.01,2.5188
270.67,140.11,136.24,-0.53573,263.99,52.814,98.251,116.76,52.538,34.898,-73.137,41.432,80.283,-34.131,1.0027,1.0293,0.97833,0.9959,0,-0.055164,-0.04114,-0.068394,443.45,306.59,315.72,0.94654
167.7,111.56,14.788,159.57,85.516,-89.753,36.899,100.59,49.107,-2.2352,18.248,127.11,50.236,-30.126,1.0251,1.0124,0.97013,0.99005,0,-0.016141,-0.028106,-0.030632,405.94,395.37,222.42,2.4881
56.389,65.97,49.579,-166.67,161.62,80.04,13.094,25.52,20.586,6.7414,-102.33,-69.708,29.658,-22.858,0.97591,1.0262,1.0003,1.0139,0,-0.016916,-0.015046,-0.022151,384.84,393.08,390.37,5.8162
137.86,227.05,113.56,15.34,46.22,204.45,8.2185,81.55,72.827,3.8548,37.213,-44.64,-9.9104,49.219,0.99172,0.97172,1.0023,0.96994,0,-0.00039527,-0.03387,-0.029925,492.37,369.27,233.13,1.2759
144.09,115.76,24.011,-12.865,59.432,96.874,27.591,87.846,47.021,-1.6499,-2.379,-21.255,5.3192,13.554,0.97571,0.97408,0.97711,0.96843,0,-0.014883,-0.035944,-0.033006,377.65,383.16,354.93,2.9239
74.832,64.231,54.444,-4.5443,118.45,-30.088,22.559,32.783,21.043,9.9519,-44.663,36.309,41.521,-32.091,1.0085,1.0284,0.99252,1.0117,0,-0.015314,-0.0094804,-0.019865,379.59,192.85,336.17,3.6798
10.352,223.83,266,-136.75,231.75,183.98,-9.7132,-30.427,44.094,35.878,-89.585,-72.383,43.465,-3.3223,0.9753,1.0216,1.0048,1.0024,0,-0.0041737,0.0060459,-0.017029,209.82,376.06,393.8,0.95778
135.2,82.133,149.4,-92.915,227.65,62.714,62.597,35.423,19.935,38.725,-96.112,-13.951,59.934,-32.596,0.98749,1.0294,0.99008,1.006,0,-0.0406,-0.014541,-0.043448,517.48,337.34,314.75,2.1769
212.74,67.675,177.35,19.659,142.16,94.367,105.1,61.319,17.174,56.016,-15.863,12.153,35.564,1.3843,0.98081,0.97815,0.97149,0.96319,0,-0.056908,-0.02299,-0.060877,458.16,296,277.8,1.2479
68.738,29.468,131.04,196.71,-3.7519,-80.582,47.66,-2.5234,-0.48612,36.961,64.98,122.46,20.683,-7.5689,1.0299,0.99266,0.98479,0.98491,0,-0.017071,0.0099218,-0.01531,337.17,269.79,234.48,2.6812
150.71,116.92,166.83,56.259,32.963,145.88,60.616,46.402,29.9,39.651,45.991,-9.1057,-4.8628,38.604,1.0252,0.99612,1.0251,0.9957,0,-0.025365,-0.017071,-0.036944,553.81,399.51,309.91,1.891
72.568,69.251,63.436,90.947,3.691,-3.649,21.56,30.315,21.08,11.711,37.12,49.14,6.0989,4.2559,1.0149,0.99404,0.99441,0.99017,0,-0.0070517,-0.0075458,-0.014557,274.33,380.84,298.62,3.6424
97.113,159.28,61.902,-43.372,56.683,150.52,2.4606,62.647,53.693,-2.7393,-2.2154,-53.466,-4.3791,26.776,0.97786,0.97875,0.99333,0.97632,0,-0.0015295,-0.028096,-0.022774,459.11,333.97,301.62,2.4229
15.464,186.52,24.204,-141.9,94.49,155.39,-47.485,39.845,62.305,-26.195,-54.581,-95.379,-0.16303,12.703,0.99051,1.0227,1.0229,1.0182,0,0.018179,-0.021645,-0.0040919,305.86,306.43,226.83,2.7161
176.63,172.48,183.52,-36.321,96.261,239.95,56.773,66.239,48.464,36.804,7.1286,-70.16,-1.1677,45.439,0.9868,0.97729,1.0081,0.97403,0,-0.028924,-0.030029,-0.047956,378.36,364.89,308.53,0.96964
50.126,52.096,152.25,130.98,-33.655,26.722,37.156,-12.794,2.7778,37.889,72.077,50.233,-7.6894,23.362,1.0242,0.9842,1.0067,0.9869,0,-0.01135,0.0082454,-0.013003,419.91,305.05,372.18,3.3044
15.729,17.53,216.88,-166.64,203.61,91.556,46.832,-56.883,-20.574,60.506,-113.39,-64.902,43.036,-27.21,0.97352,1.0261,1.0023,1.0119,0,-0.035106,0.01673,-0.024646,267.88,310.85,366.76,2.802
6.2853,81.799,152.13,64.15,27.248,22.143,9.4842,-27.293,9.6834,28.761,24.142,33.296,9.247,5.1369,0.98862,0.97522,0.97807,0.97094,0,-0.0024268,0.013066,-0.0055033,248.49,364.33,259.18,2.6238
203.64,242.63,23.327,-5.6342,165.83,104.22,12.002,144.09,95.374,-20.218,-32.653,2.7155,41.437,-2.9895,0.99335,1.0086,0.98145,0.98602,0,-0.0093306,-0.054796,-0.041905,501.15,372.62,176.01,1.2272
132.17,11.349,124.57,-71.53,70.769,135.96,77.395,27.58,-2.2928,45.127,-21.65,-60.417,-0.28918,17.683,0.97054,0.97375,0.99139,0.97404,0,-0.043599,-0.015341,-0.042723,522.39,339.04,319.34,3.3865
212.89,128.72,192.51,46.648,52.056,204.24,87.564,71.402,34.88,50.607,48.021,-29.029,-6.1228,50.836,1.0064,0.97299,1.0119,0.97266,0,-0.040118,-0.028207,-0.05431,588.42,337.08,351.12,1.3766
181.72,15.94,14.487,-75.038,106.08,69.032,73.22,86.715,17.133,16.61,-49.391,-33.436,19.17,-8.2456,0.98735,1.005,0.9934,0.99656,0,-0.04223,-0.035433,-0.047167,470.41,228.96,274.41,3.5835
20.061,140.2,2.6847,8.6983,65.651,-8.1082,-35.83,39.496,49,-22.873,-17.456,24.076,21.946,-15.042,0.98783,1.0003,0.9757,0.98846,0,0.016488,-0.013382,-0.00029268,373.8,257.28,319.58,4.8231
77.179,69.338,40.38,-7.365,39.589,47.685,18.506,39.923,24.331,5.5648,-3.7596,-6.9499,4.9077,3.9391,0.97974,0.97977,0.97935,0.97605,0,-0.010111,-0.016018,-0.019193,443.07,177.7,385.09,4.3417
57.394,6.406,91.32,48.1,-51.249,63.412,41.321,0.41031,-5.0149,29.855,51.825,-5.2178,-24.196,29.872,1.0184,0.98815,1.0203,0.9976,0,-0.015489,-0.00052103,-0.015425,380.97,398.2,310.65,6.0213
20.277,244.19,279.45,-46.366,222.18,128.35,-8.8505,-25.382,50.368,36.792,-60.359,-12.014,54.323,-8.9826,0.97564,1.0073,0.98214,0.9832,0,-0.0016685,0.0089191,-0.0165,491.14,381.71,388.84,1.3059
90.157,40.159,27.972,139.14,24.087,-97.809,30.503,43.376,17.165,8.0294,28.953,106.71,28.463,-22.575,1.0226,1.0051,0.97966,0.99324,0,-0.012109,-0.0081697,-0.01638,522.28,183.18,153.73,4.4124
7.3142,82.225,202.07,9.1587,154.78,-17.369,20.609,-42.623,3.8413,42.926,-47.985,46.916,53.749,-33.887,1.0072,1.029,0.99295,1.0091,0,-0.014699,0.019349,-0.012219,186.49,383.85,312.51,2.0318
55.72,80.697,32.625,39.731,-28.321,56.92,4.1305,34.599,27.368,-0.31243,39.592,-1.9567,-16.013,23.001,1.0053,0.98474,1.0034,0.98872,0,0.0019391,-0.012904,-0.0097426,475.89,293.82,389.36,5.8235
47.989,59.84,221.72,-119,128.38,162.6,48.018,-33.373,-3.9504,56.651,-54.127,-78.917,12.79,10.372,0.98569,1.0083,1.0175,1.0038,0,-0.029858,0.0065151,-0.027464,215.01,274.14,375.31,1.6254
318.47,128.71,84.196,-98.036,206.88,200.36,108.56,155.31,57.056,27.511,-64.863,-66.254,35.099,8.0165,0.98963,1.0114,1.0028,0.99414,0,-0.061246,-0.063231,-0.079754,524.16,372.33,201.74,1.0628
267.35,230.44,47.21,-29.468,219.39,125.83,47.813,164.07,93.438,-6.3557,-55.872,-4.9407,54.78,-8.774,0.98515,1.0086,0.97455,0.98111,0,-0.029936,-0.063994,-0.060939,559.63,381.59,231.56,1.1439
9.0471,194.3,190.26,-27.142,150.9,84.122,-16.96,-13.403,43.471,19.575,-39.218,-3.8582,36.812,-7.2694,0.98939,1.0109,0.99185,0.99401,0,0.0045828,0.0047876,-0.00878,443.04,309.47,345.69,1.7742
106.18,4.4311,165.33,77.418,60.784,-0.45139,78.711,-0.42093,-10.583,54.749,13.787,53.707,24.128,-6.0247,1.0194,1.0047,0.99965,0.9965,0,-0.037376,0.0040802,-0.031649,456.87,397.14,270.02,3.0659
76.059,75.538,55.36,102.31,-87.999,81.312,18.802,36.225,23.945,9.1605,89.791,6.5722,-35.138,46.429,1.0237,0.97643,1.0187,0.98795,0,-0.00040086,-0.012452,-0.012348,444.38,384.46,313.9,4.5211
65.82,142.12,172.63,95.093,5.0211,99.679,19.031,8.5901,31.777,29.157,61.202,18.61,-5.89,34.021,1.0298,0.99739,1.0224,0.99721,0,-0.0033158,-0.0017179,-0.015642,324.24,385,280.05,1.5934
43.469,199.77,67.932,93.547,-77.773,148.18,-31.869,43.823,62.097,-12.182,97.551,-17.12,-40.29,63.199,1.0189,0.97264,1.022,0.98325,0,0.026157,-0.016881,-0.0011385,246.48,367.9,398.25,2.2651
20.397,269.47,234.91,-73.538,75.602,294.05,-27.189,-5.2011,64.277,19.829,9.8164,-109.56,-17.324,61.412,0.97443,0.97215,1.0158,0.97386,0,0.015512,-0.0062921,-0.011109,348.3,393.44,369.85,1.1135
242.84,39.487,45.482,-172.64,161.58,191.61,96.921,111.75,25.337,26.606,-82.925,-109.65,15.061,7.0725,0.97889,1.0112,1.0116,1.0037,0,-0.057844,-0.050251,-0.066025,485.43,176.76,395.13,2.2254
397.45,54.096,80.766,50.694,175.22,91.243,164.88,177.32,38.428,46.106,-17.823,31.933,47.842,-4.1555,1.0087,1.0011,0.98349,0.9802,0,-0.084168,-0.064135,-0.095103,570.17,189.73,282.68,0.95768
21.94,96.32,92.647,194.02,-31.19,-62.284,-1.9449,2.196,22.874,10.651,77.045,109.09,8.8192,2.4414,1.0128,0.97381,0.97168,0.96867,0,0.0088885,0.0074295,0.00056494,214.1,286.02,313.07,2.8701
108.85,0.49314,89.667,88.21,27.209,-24.565,64.526,24.117,-2.5622,34.338,23.567,59.086,16.428,-6.0067,0.99519,0.9765,0.97098,0.97041,0,-0.031015,-0.0047278,-0.028718,387.27,212.79,364.3,3.8383
100.45,181.21,24.552,-59.346,116.08,99.866,-10.728,80.301,66.491,-17.48,-38.813,-32.391,20.654,0.41955,0.98649,1.0072,0.99264,0.99461,0,0.0014934,-0.032974,-0.021661,454.39,330.16,356.14,2.7127
101.24,151.45,27.823,-126.97,44.449,226.17,-0.92633,73.563,55.681,-10.866,-17.927,-121.03,-23.966,42.38,0.98998,0.99918,1.0292,1.004,0,-0.0013596,-0.035715,-0.023789,362.12,372.32,379.27,2.9762
273.76,43.86,235,21.316,209.1,91.528,151.08,66.404,7.0501,81.306,-37.631,26.847,58.1,-10.821,1.0003,1.004,0.98524,0.98171,0,-0.079677,-0.023036,-0.077946,431.01,296.21,344.27,0.94056
30.841,151.15,114.39,-11.778,57.256,99.902,-10.75,11.945,39.64,7.8257,0.41928,-21.515,4.0901,15.234,1.0081,1.009,1.0151,1.0045,0,0.0053678,-0.0059085,-0.0088806,400.99,266.05,304.95,2.2624
179.2,222.71,127.39,210.18,82.282,10.26,29.992,95.448,73.17,11.354,62.545,118.5,40.218,3.7006,1.0228,0.98835,0.97139,0.96746,0,-0.0086989,-0.026853,-0.034033,565.52,373.19,348.9,1.4232
132.42,124.9,169.68,-126.99,148.65,210.23,51.094,38.143,31.04,37.176,-53.776,-93.609,12.885,19.396,0.99769,1.0195,1.0293,1.0125,0,-0.030662,-0.02061,-0.040918,317.79,357.71,303.18,1.289
167.26,5.5865,32.255,-205.54,84.365,223.48,72.951,72.584,9.4058,22.979,-65.11,-151.66,-16.821,26.72,0.97895,1.0047,1.0298,1.0102,0,-0.044083,-0.037999,-0.048765,339.46,291.82,230.36,3.2358
83.79,82.802,82.919,105.77,-4.3849,18.245,26.016,32.603,24.028,15.837,50.555,47.368,1.6688,13.293,1.0129,0.98465,0.99285,0.9822,0,-0.0080233,-0.0085504,-0.017136,367.29,362.03,351.9,3.3248
59.037,156.56,88.969,244.92,-35.992,-46.13,-7.1986,34.851,46.054,2.3635,102.68,126.57,8.6579,12.154,1.0232,0.97187,0.97332,0.965,0,0.014084,-0.003548,-0.0034954,542.43,281.96,262.64,2.5629
282.92,75.443,101.59,-7.1191,58.417,208.79,113.31,122.61,32.747,40.61,23.407,-56.265,-9.0293,45.404,1.0143,0.99106,1.0259,0.99199,0,-0.054482,-0.047878,-0.067557,599.21,257.34,252.52,1.4005
219.06,147.46,77.743,88.178,18.514,139.98,59.122,114.88,55.787,15.193,61.517,4.1318,-6.713,41.774,1.0184,0.98134,1.0084,0.97965,0,-0.023594,-0.041323,-0.045702,439.44,341.85,292.25,1.4127
79.605,15.163,117.38,64.461,3.8555,28.199,53.552,4.6749,-3.3967,37.335,33.146,26.001,0.23024,11.26,1.0051,0.98275,0.99502,0.98293,0,-0.023934,0.0001983,-0.022608,415.84,244.42,387.39,3.9217
129.14,39.739,166.53,-106.5,123.01,159.91,76.151,18.984,1.9843,51.604,-47.722,-73.662,11.827,11.857,0.9864,1.0029,1.0124,0.99835,0,-0.043681,-0.012567,-0.043539,340.29,206.8,338.69,1.6371
9.7257,76.99,85.462,-19.53,120.08,-29.624,-1.9688,-5.6243,16.494,11.105,-51.12,29.134,40.985,-33.489,0.99468,1.0205,0.98414,1.0042,0,-0.004112,0.0043547,-0.007119,461.93,294.47,242.53,4.7756
233.64,157.44,15.007,-154.58,141.04,243.24,48.937,142.84,69.086,-4.4777,-58.434,-120.37,4.2713,26.511,0.97535,1.0002,1.0098,0.99347,0,-0.031338,-0.063095,-0.056881,465.26,269.99,352.47,1.679
140.03,100.72,289.93,-42.881,258.45,87.643,89.25,-2.7501,9.5291,75.567,-79.776,9.2863,71.731,-26.253,0.97973,1.0112,0.9764,0.98366,0,-0.053565,0.0017927,-0.051755,399.08,367.16,391.58,1.1798
115.57,104.79,36.484,-57.733,8.4534,175.53,21.588,67.992,39.357,1.7284,12.24,-79.027,-24.921,40.979,0.9942,0.98575,1.0184,0.99217,0,-0.0098389,-0.030799,-0.026707,497.2,234,191.21,2.5716
72.964,151.13,166.11,124.65,126.43,-41.761,18.184,15.462,36.933,25.532,2.9047,104.64,55.701,-25.976,1.0187,1.0155,0.97851,0.99204,0,-0.0085748,0.0020515,-0.018093,527.85,301.27,393.05,2.1158
117.37,177.31,52.801,70.275,39.916,69.673,2.9532,79.466,62.233,-6.62,32.918,23.741,8.0825,16.694,1.0276,1.011,1.0131,1.0034,0,0.0017698,-0.026698,-0.02046,573.52,375.67,398.2,2.8563
139.91,9.3326,134.31,115.42,-3.2373,33.418,84.037,27.041,-3.0164,48.302,57.156,46.465,0.51989,18.556,1.0083,0.97051,0.98894,0.97055,0,-0.037384,-0.0066157,-0.036152,495.58,288.6,368.26,3.0556
155.85,25.278,150.8,-29.466,40.132,163.55,88.244,34.015,0.8094,52.293,11.66,-55.344,-10.974,34.743,1.0026,0.98767,1.0204,0.99174,0,-0.043735,-0.016399,-0.044877,463.91,216,399.44,2.2405
22.776,63.789,129.15,-104.9,143.89,60.184,16.884,-15.943,7.3115,27.163,-74.785,-36.288,31.279,-19.806,0.98244,1.0185,0.9973,1.0065,0,-0.016057,0.0032934,-0.016437,377.68,273.65,306.2,3.4282
124.45,171.76,160.38,-172.61,244.57,183.29,31.565,46.437,48.115,24.744,-109.28,-87.78,44.624,-8.9869,0.97172,1.0239,1.0014,1.0039,0,-0.027092,-0.024476,-0.04127,324.4,367.68,382.93,1.3532
48.051,137.4,16.809,-165.74,126.08,132.96,-19.997,47.249,48.784,-16.589,-79.575,-93.231,11.366,-1.6154,0.98539,1.0274,1.0166,1.0197,0,0.0020105,-0.024482,-0.014505,505.22,296.28,385.31,4.86
19.606,66.054,142.11,80.069,-45.333,70.601,17.774,-21.11,6.409,30.054,64.636,9.4162,-20.697,33.591,1.0248,0.99059,1.0229,0.99786,0,-0.0023887,0.0081605,-0.0063606,414.03,359,290.74,3.6586
72.987,126.73,211.98,136.27,7.9548,78.464,35.62,-4.0867,22.44,43.441,72.264,45.546,0.75036,31.092,1.0162,0.97596,0.9997,0.97396,0,-0.010735,0.0048366,-0.019458,280.53,317.31,368.05,1.3443
105.24,81.548,120.77,-96.262,144.12,109.26,43.627,30.544,20.619,28.523,-60.867,-47.65,25.918,-5.2034,0.97792,1.0045,0.99362,0.9933,0,-0.028647,-0.015347,-0.034399,286.93,289.84,244.82,1.6679
159.84,88.262,185.75,-148.94,190.26,199.1,77.55,38.146,18.462,50.773,-78.812,-92.839,26.344,6.9873,0.98379,1.0158,1.0155,1.0047,0,-0.047096,-0.021128,-0.051901,317.1,219.93,378.81,1.1091
64.897,247.3,106.52,164.74,-51.038,118.29,-30.225,52.689,74.653,-7.6173,111.92,32.167,-22.516,55.96,1.0297,0.97636,1.0141,0.97925,0,0.026404,-0.016474,-0.0043998,222.02,370.04,209.89,0.91734
38.683,250.48,68.356,168.66,15.709,7.8923,-50.172,52.585,78.837,-21.669,67.711,84.424,14.495,12.24,1.0217,0.99281,0.98652,0.98139,0,0.031676,-0.013166,0.0026825,312.37,371.74,241.19,1.5907
259.34,18.021,60.319,-31.361,97.003,117.84,114.05,110.58,17.444,36.277,-18.512,-30.859,13.023,10.879,0.98572,0.98351,0.98902,0.97724,0,-0.061256,-0.044565,-0.066997,591.4,246.17,238.72,2.1745
115.67,211.93,23.161,-45.54,134.6,97.719,-14.488,94.769,78.345,-22.169,-39.624,-21.168,28.408,-2.2081,0.97651,0.99827,0.97736,0.98169,0,0.0033819,-0.038599,-0.024199,450.54,352.79,154.53,1.7186
30.271,32.432,91.712,-100.2,111.36,48.45,21.888,-7.2758,1.8099,22.851,-64.946,-37.149,21.988,-16.938,0.99226,1.0226,1.0066,1.0145,0,-0.01734,-6.15E-05,-0.016409,205.21,355.26,348.31,4.8956
115.74,143.08,121.62,36.09,63.977,100.13,28.355,49.247,42.133,18.77,17.891,2.8511,10.014,18.239,1.0011,0.98909,0.99632,0.98212,0,-0.012606,-0.018155,-0.027973,435.61,301.46,354.49,1.8553
189.31,172.44,157.17,91.89,42.276,157.26,56.404,80.607,52.549,30.49,59.861,6.0601,-0.35161,43.181,1.0125,0.97637,1.0043,0.97248,0,-0.022635,-0.029046,-0.043251,554.66,345.96,345.23,1.388
110.55,187.35,12.308,156.09,21.951,-14.692,-12.334,91.3,69.859,-20.312,54.803,87.361,18.884,3.0255,1.0148,0.9884,0.97526,0.97594,0,0.011719,-0.027742,-0.013765,483.88,390.33,272.34,2.6918
145.35,40.144,61.63,51.121,-11.042,78.211,60.193,60.138,16.366,23.109,43.07,0.048879,-12.196,26.734,1.023,0.99537,1.0186,0.9987,0,-0.025519,-0.021468,-0.032557,299.08,204.74,263.39,2.1036
25.855,186.51,91.306,-70.012,69.75,154.06,-29.038,24.364,54.321,-5.708,-16.456,-64.74,-2.6013,23.27,0.98,0.99141,1.0025,0.9883,0,0.01335,-0.014135,-0.0074717,556.81,288.4,308.23,2.7682
108.82,90.494,103.54,1.8548,-3.4855,155.25,37.914,40.434,25.575,22.924,37.019,-46.301,-22.238,43.012,1.0026,0.9799,1.0167,0.98639,0,-0.01564,-0.018139,-0.027197,317.92,306.11,285.76,1.9997
95.153,66.146,51.718,168.83,13.313,-81.58,29.297,44.002,23.34,10.56,48.022,113.3,24.822,-13.502,1.0243,0.99735,0.97887,0.98628,0,-0.0097016,-0.0079055,-0.016647,454.96,201.27,300.55,3.4859
51.741,173.83,208.49,71.48,154.75,7.6478,11.386,-3.1591,37.764,31.798,-16.651,69.541,55.234,-21.305,1.0173,1.0244,0.99172,1.0013,0,-0.0071211,0.0063007,-0.016804,513.21,353.76,323.44,1.7269
135.71,80.031,181.98,-79.432,158.96,133.7,69.866,25.728,14.702,48.908,-53.262,-44.028,29.225,0.57777,0.99735,1.0171,1.0118,1.0052,0,-0.040027,-0.012735,-0.043247,350.13,229.88,362.79,1.3646
74.263,28.242,97.098,-86.714,82.214,92.732,42.473,11.618,2.8987,28.987,-40.62,-50.906,7.7401,1.9781,0.9865,1.0028,1.0047,0.99973,0,-0.025788,-0.0081873,-0.026288,569.35,349.94,386.67,5.5021
159.69,164.75,210.28,51.659,45.276,203.79,58.143,47.805,41.246,44.429,52.611,-27.203,-7.7175,52.548,1.0044,0.9715,1.0109,0.9713,0,-0.024583,-0.019512,-0.041453,474.8,397.98,370.98,1.3169
135.46,43.633,54.862,208.26,-10.837,-80.001,53.82,57.368,18.271,18.842,71.704,125.71,18.842,-5.4199,1.0269,0.98544,0.97582,0.9769,0,-0.019644,-0.011949,-0.025245,449.4,259.41,198.72,2.8844
74.792,26.271,57.329,-15.988,121.68,-42.754,35.286,23.489,7.7374,17.641,-53.188,35.251,43.281,-37.185,1.0047,1.0277,0.98981,1.0113,0,-0.02243,-0.0061446,-0.022096,319.88,180.01,375.42,4.5215
123.24,39.815,155.19,4.5148,147.17,12.037,72.374,18.781,4.0068,46.963,-41.011,33.128,46.589,-24.261,1.0104,1.0236,0.9967,1.0062,0,-0.039284,-0.0044863,-0.037361,579.51,227.22,372.78,2.6809
116.27,259.11,50.274,96.785,56.657,78.747,-24.504,97.875,90.054,-21.866,40.408,36.889,14.856,18.704,1.0262,1.0086,1.0055,0.99638,0,0.015877,-0.032625,-0.016361,515.62,367.68,158.25,1.4348
126.24,103.26,86.736,-34.637,143.62,53.159,38.407,55.991,34.159,16.428,-47.256,0.34014,37.412,-15.521,0.98496,1.0051,0.98059,0.98853,0,-0.024378,-0.021539,-0.034362,278.28,328.22,208.49,1.5735
6.839,282.38,24.109,-14.159,26.533,155.01,-82.128,57.27,93.782,-43.455,20.839,-48.604,-13.239,37.074,0.97798,0.9757,0.99203,0.97359,0,0.045597,-0.025693,0.0078257,162.56,396.76,271.01,1.6628
31.252,6.1637,189.84,23.569,-15.874,99.601,51.923,-43.575,-19.023,55.482,37.869,-20.718,-17.957,31.562,1.0084,0.98388,1.0192,0.99208,0,-0.022519,0.014271,-0.016641,443.89,219.99,303.83,3.2472
210.46,16.357,285.01,-86.447,239.27,146.08,143.47,14.787,-14.216,96.14,-79.638,-36.803,53.961,-9.973,0.97483,1.0009,0.98768,0.98168,0,-0.082446,-0.008561,-0.072972,561.21,379.14,392.17,1.6013
16.938,93.234,153.06,52.771,8.63,65.827,10.375,-19.813,14.152,27.995,35.047,9.813,-3.4143,20.022,0.99595,0.97693,0.99376,0.97715,0,-0.0017336,0.0081854,-0.0075146,308.05,254.27,395.38,2.6272
50.14,28.471,112.94,-93.748,5.6383,174.25,35.387,-4.6995,-0.95607,31.598,-2.0617,-96.795,-28.358,38.01,0.98027,0.97768,1.0167,0.9885,0,-0.018826,-0.0054821,-0.020645,255.83,363.73,319.33,3.9114
75.13,93.768,229.16,-37.156,132.39,115.52,50.692,-15.486,9.1996,54.571,-30.915,-22.616,26.023,3.9002,1.0087,1.0191,1.0182,1.0088,0,-0.027895,0.0039682,-0.029338,454.72,215.72,380.39,1.6244
152.69,111.83,239.66,-161.54,146.19,303.71,77.625,23.749,18.661,61.872,-48.438,-141.45,-1.3823,42.701,0.97104,0.98802,1.0221,0.98714,0,-0.045892,-0.01952,-0.053115,498.62,215.04,349.53,1.0977
161.43,53.904,69.106,-135.57,146.08,134.06,64.328,67.993,21.642,23.642,-73.199,-74.93,20.121,-2.427,0.99641,1.0265,1.0191,1.0176,0,-0.038936,-0.030411,-0.045207,467.89,379.44,335.25,3.153
67.094,59.591,140.25,31.157,52.523,46.238,39.164,1.1812,8.0299,34.711,7.8216,15.088,12.394,4.6726,0.98858,0.98055,0.98279,0.97521,0,-0.019546,0.0007048,-0.021704,501.06,328.55,284.4,3.1457
217.31,240.5,32.078,-79.212,171.69,183.73,20.104,147.46,94.524,-16.222,-48.173,-57.15,27.841,11.713,1.0073,1.0292,1.0174,1.0121,0,-0.01447,-0.05771,-0.046239,514.16,344.6,164.85,1.081
81.96,135.1,243.83,-14.708,121.33,142.42,43.5,-7.6816,21.99,51.859,-12.177,-22.388,20.727,15.491,1.0125,1.0142,1.0212,1.0049,0,-0.022549,0.0011503,-0.02906,252.7,381.48,383.37,1.205
139.74,103.56,44.142,-67.562,104.87,106.05,34.306,76.377,40.264,5.6443,-37.445,-40.829,15.212,3.1508,0.99788,1.0132,1.0074,1.0047,0,-0.020843,-0.031294,-0.034442,585.75,262.37,386.61,3.2639
...
